Version 4
SHEET 1 1488 680
WIRE -272 -48 -464 -48
WIRE -48 -48 -192 -48
WIRE 64 -48 -48 -48
WIRE 128 32 64 32
WIRE 256 32 192 32
WIRE 256 64 256 32
WIRE -464 80 -464 -48
WIRE -368 80 -464 80
WIRE -224 80 -288 80
WIRE -160 80 -224 80
WIRE -48 80 -48 32
WIRE -48 80 -96 80
WIRE 0 80 -48 80
WIRE -224 128 -224 80
WIRE -48 128 -48 80
WIRE -464 240 -464 80
FLAG -224 208 0
FLAG -48 208 0
FLAG 64 208 0
FLAG -464 240 0
FLAG 256 144 0
SYMBOL npn 0 32 R0
SYMATTR InstName Q1
SYMATTR Value 2N5088
SYMBOL res -240 112 R0
SYMATTR InstName R1
SYMATTR Value 1Meg
SYMBOL res -64 -64 R0
SYMATTR InstName R2
SYMATTR Value 1Meg
SYMBOL res 48 -64 R0
SYMATTR InstName R3
SYMATTR Value 10k
SYMBOL res -64 112 R0
SYMATTR InstName R4
SYMATTR Value 100k
SYMBOL res 48 112 R0
SYMATTR InstName R5
SYMATTR Value 390
SYMBOL cap -96 64 R90
WINDOW 0 0 32 VBottom 2
WINDOW 3 32 32 VTop 2
SYMATTR InstName C1
SYMATTR Value 100n
SYMBOL cap 192 16 R90
WINDOW 0 0 32 VBottom 2
WINDOW 3 32 32 VTop 2
SYMATTR InstName C2
SYMATTR Value 100n
SYMBOL voltage -176 -48 R90
WINDOW 0 -32 56 VBottom 2
WINDOW 3 32 56 VTop 2
WINDOW 123 0 0 Left 0
WINDOW 39 0 0 Left 0
SYMATTR InstName V1
SYMATTR Value 9
SYMBOL voltage -272 80 R90
WINDOW 0 -32 56 VBottom 2
WINDOW 3 32 56 VTop 2
WINDOW 123 0 0 Left 0
WINDOW 39 0 0 Left 0
SYMATTR InstName V2
SYMATTR Value SINE(0 0.1 1000 0 0 0 4)
SYMBOL res 240 48 R0
SYMATTR InstName R6
SYMATTR Value 100k
TEXT -384 -296 Left 2 !.lib http://www.centralsemi.com/docs/csm/2N5088.LIB
TEXT -484 264 Left 2 !.tran 0.01
