Version 4
SHEET 1 1236 680
WIRE 96 -208 0 -208
WIRE 208 -208 96 -208
WIRE 336 -208 208 -208
WIRE 576 -208 336 -208
WIRE 96 -176 96 -208
WIRE 208 -176 208 -208
WIRE 336 -128 336 -208
WIRE 576 -128 576 -208
WIRE 96 -80 96 -112
WIRE 160 -80 96 -80
WIRE 208 -80 208 -112
WIRE 208 -80 160 -80
WIRE 160 -64 160 -80
WIRE 576 -16 576 -48
WIRE 736 -16 576 -16
WIRE 864 -16 800 -16
WIRE 576 0 576 -16
WIRE 864 16 864 -16
WIRE 80 48 -112 48
WIRE 176 48 80 48
WIRE 336 48 336 -48
WIRE 336 48 240 48
WIRE 512 48 336 48
WIRE 80 128 80 48
WIRE 336 128 336 48
WIRE 576 128 576 96
WIRE -112 144 -112 48
WIRE 864 144 864 96
WIRE -112 240 -112 208
WIRE 80 240 80 208
WIRE 336 240 336 208
WIRE 576 240 576 208
WIRE 864 240 864 224
WIRE 1008 240 1008 224
WIRE 1152 240 1152 208
FLAG 160 -64 0
FLAG 80 240 0
FLAG -112 240 0
FLAG 336 240 0
FLAG 576 240 0
FLAG 864 240 0
FLAG 1008 240 0
FLAG 1152 240 0
FLAG -256 48 0
SYMBOL res 320 -144 R0
SYMATTR InstName R2
SYMATTR Value 430k
SYMBOL res 320 112 R0
SYMATTR InstName R3
SYMATTR Value 43k
SYMBOL res 560 -144 R0
SYMATTR InstName R4
SYMATTR Value 10k
SYMBOL res 560 112 R0
SYMATTR InstName R5
SYMATTR Value 390
SYMBOL res 992 128 R0
SYMATTR InstName R6
SYMATTR Value 100k
SYMBOL cap 240 32 R90
WINDOW 0 0 32 VBottom 2
WINDOW 3 32 32 VTop 2
SYMATTR InstName C1
SYMATTR Value 0.1µF
SYMBOL cap 800 -32 R90
WINDOW 0 0 32 VBottom 2
WINDOW 3 32 32 VTop 2
SYMATTR InstName C2
SYMATTR Value 0.1µF
SYMBOL cap 192 -176 R0
SYMATTR InstName C3
SYMATTR Value 47µF
SYMBOL cap -128 144 R0
SYMATTR InstName C4
SYMATTR Value 100pF
SYMBOL cap 1136 144 R0
SYMATTR InstName C5
SYMATTR Value 100pF
SYMBOL cap -368 -176 R0
SYMATTR InstName C6
SYMATTR Value 100pF
SYMBOL cap 80 -176 R0
SYMATTR InstName C7
SYMATTR Value 0.1µF
SYMBOL FerriteBead -32 -208 R90
WINDOW 0 -16 0 VBottom 2
SYMATTR InstName FB3
SYMBOL npn 512 0 R0
SYMATTR InstName Q1
SYMATTR Value BC550B
SYMBOL res 848 0 R0
SYMATTR InstName Rp1
SYMATTR Value 55k
SYMBOL res 848 128 R0
SYMATTR InstName Rp2
SYMATTR Value 45k
SYMBOL res 64 112 R0
SYMATTR InstName R1
SYMATTR Value 2.2Meg
SYMBOL voltage -176 -192 R0
SYMATTR InstName V1
SYMBOL diode -240 16 R180
WINDOW 0 24 64 Left 2
WINDOW 3 24 0 Left 2
SYMATTR InstName D1
TEXT -576 -504 Left 2 !.MODEL BC550B NPN\n+ LEVEL = 1\n+IS=1.8E-14 \n+ISE=5.0E-14 \n+ISC=1.72E-13 \n+XTI=3 \n+BF=400 \n+BR=35.5 \n+IKF=0.14 \n+IKR=0.03 \n+XTB=1.5 \n+VAF=80 \n+VAR=12.5 \n+VJE=0.58 \n+VJC=0.54 \n+RE=0.6 \n+RC=0.25 \n+RB=0.56 \n+CJE=13p \n+CJC=4p \n+XCJC=0.75 \n+FC=0.5 \n+NF=0.9955 \n+NR=1.005 \n+NE=1.46 \n+NC=1.27 \n+MJE=0.33 \n+MJC=0.33 \n+TF=0.64n \n+TR=50.72n \n+EG=1.11 \n+VCEO=50 \n+ICRATING=100M \n+MFG=ZETEX
